data_image0
_chemical_formula_structural       Os4
_chemical_formula_sum              "Os4"
_cell_length_a       2.756366987171075
_cell_length_b       4.352688987275548
_cell_length_c       4.778326988220215
_cell_angle_alpha    89.98272212419754
_cell_angle_beta     90.00673024093972
_cell_angle_gamma    89.96223155625341

_space_group_name_H-M_alt    "P 1"
_space_group_IT_number       1

loop_
  _space_group_symop_operation_xyz
  'x, y, z'

loop_
  _atom_site_type_symbol
  _atom_site_label
  _atom_site_symmetry_multiplicity
  _atom_site_fract_x
  _atom_site_fract_y
  _atom_site_fract_z
  _atom_site_occupancy
  Os  Os1       1.0  0.11009041219949722  0.3559030890464782  0.6394458413124084  1.0000
  Os  Os2       1.0  0.6097753643989563  0.35564133524894714  0.13955757021903992  1.0000
  Os  Os3       1.0  0.11031163483858109  0.8558250665664672  0.30645325779914856  1.0000
  Os  Os4       1.0  0.6098891496658325  0.8560022115707397  0.8062646985054016  1.0000
