data_image0
_chemical_formula_structural       Ir8Os4
_chemical_formula_sum              "Ir8 Os4"
_cell_length_a       4.403648481691174
_cell_length_b       4.775088594063399
_cell_length_c       8.282750129699707
_cell_angle_alpha    89.93943238732582
_cell_angle_beta     89.9390772177957
_cell_angle_gamma    89.95987514648628

_space_group_name_H-M_alt    "P 1"
_space_group_IT_number       1

loop_
  _space_group_symop_operation_xyz
  'x, y, z'

loop_
  _atom_site_type_symbol
  _atom_site_label
  _atom_site_symmetry_multiplicity
  _atom_site_fract_x
  _atom_site_fract_y
  _atom_site_fract_z
  _atom_site_occupancy
  Ir  Ir1       1.0  0.7058558464050293  0.45040830969810486  0.6303687691688538  1.0000
  Ir  Ir2       1.0  0.7059380412101746  0.4446758031845093  0.9681139588356018  1.0000
  Ir  Ir3       1.0  0.7064839005470276  0.9499481320381163  0.13731224834918976  1.0000
  Ir  Ir4       1.0  0.2058296650648117  0.11342919617891312  0.6377318501472473  1.0000
  Ir  Ir5       1.0  0.2062210589647293  0.6126189231872559  0.13084776699543  1.0000
  Ir  Ir6       1.0  0.20603331923484802  0.6196203231811523  0.4692288637161255  1.0000
  Ir  Ir7       1.0  0.20639187097549438  0.11891008913517  0.2999844551086426  1.0000
  Ir  Ir8       1.0  0.7051761150360107  0.9443581104278564  0.7998424768447876  1.0000
  Os  Os1       1.0  0.7065513134002686  0.450800359249115  0.3024030327796936  1.0000
  Os  Os2       1.0  0.2056254893541336  0.11168461292982101  0.9662922024726868  1.0000
  Os  Os3       1.0  0.7062915563583374  0.951279103755951  0.46559181809425354  1.0000
  Os  Os4       1.0  0.20529966056346893  0.6126556396484375  0.8021960854530334  1.0000
