data_image0
_chemical_formula_structural       IrOs13IrOs
_chemical_formula_sum              "Ir2 Os14"
_cell_length_a       5.463859256031194
_cell_length_b       5.461298458406378
_cell_length_c       9.037896156311035
_cell_angle_alpha    98.62595090424988
_cell_angle_beta     81.4010409712629
_cell_angle_gamma    120.03539938124652

_space_group_name_H-M_alt    "P 1"
_space_group_IT_number       1

loop_
  _space_group_symop_operation_xyz
  'x, y, z'

loop_
  _atom_site_type_symbol
  _atom_site_label
  _atom_site_symmetry_multiplicity
  _atom_site_fract_x
  _atom_site_fract_y
  _atom_site_fract_z
  _atom_site_occupancy
  Ir  Ir1       1.0  0.3754693865776062  0.7159039378166199  0.9411256909370422  1.0000
  Os  Os1       1.0  0.6259037852287292  0.46603891253471375  0.44087132811546326  1.0000
  Os  Os2       1.0  0.8760033845901489  0.7157660722732544  0.9404036402702332  1.0000
  Os  Os3       1.0  0.0007822931511327727  0.09096504747867586  0.19051823019981384  1.0000
  Os  Os4       1.0  0.12589140236377716  0.9663865566253662  0.4413653612136841  1.0000
  Os  Os5       1.0  0.6256245970726013  0.9660013318061829  0.4400003254413605  1.0000
  Os  Os6       1.0  0.00014221668243408203  0.5922804474830627  0.1921509951353073  1.0000
  Os  Os7       1.0  0.3752025365829468  0.21674838662147522  0.9409033060073853  1.0000
  Os  Os8       1.0  0.12568283081054688  0.4665850102901459  0.44076409935951233  1.0000
  Os  Os9       1.0  0.5008337497711182  0.5911755561828613  0.1910625547170639  1.0000
  Os  Os10      1.0  0.5001323819160461  0.09145466238260269  0.19158555567264557  1.0000
  Os  Os11      1.0  0.751162052154541  0.8417886495590211  0.6901740431785583  1.0000
  Os  Os12      1.0  0.7504808306694031  0.3421402871608734  0.6914353966712952  1.0000
  Os  Os13      1.0  0.25166991353034973  0.34110656380653387  0.6889287829399109  1.0000
  Ir  Ir2       1.0  0.8761348128318787  0.21605108678340912  0.9404950141906737  1.0000
  Os  Os14      1.0  0.24986574053764343  0.8417462110519409  0.6914311051368713  1.0000
