data_image0
_chemical_formula_structural       Os3TaOs3ReOs2
_chemical_formula_sum              "Os8 Ta1 Re1"
_cell_length_a       4.772987039213928
_cell_length_b       5.5074798581267395
_cell_length_c       6.185549259185791
_cell_angle_alpha    102.77543384905513
_cell_angle_beta     97.52286222121701
_cell_angle_gamma    106.66193963085951

_space_group_name_H-M_alt    "P 1"
_space_group_IT_number       1

loop_
  _space_group_symop_operation_xyz
  'x, y, z'

loop_
  _atom_site_type_symbol
  _atom_site_label
  _atom_site_symmetry_multiplicity
  _atom_site_fract_x
  _atom_site_fract_y
  _atom_site_fract_z
  _atom_site_occupancy
  Os  Os1       1.0  0.3771170377731323  0.5030105113983154  0.9628853797912598  1.0000
  Os  Os2       1.0  0.16632862389087677  0.09930402040481567  0.5682017803192139  1.0000
  Os  Os3       1.0  0.5711731314659119  0.40254694223403925  0.3674873113632202  1.0000
  Ta  Ta1       1.0  0.9727657437324524  0.20067612826824185  0.16099558770656586  1.0000
  Os  Os4       1.0  0.9673948287963867  0.6995877027511597  0.16282854974269867  1.0000
  Os  Os5       1.0  0.17091044783592224  0.6037130355834961  0.56717848777771  1.0000
  Os  Os6       1.0  0.3697759807109833  0.9969592690467834  0.9567545056343079  1.0000
  Re  Re1       1.0  0.555348813533783  0.8939827084541321  0.3623771071434021  1.0000
  Os  Os7       1.0  0.7666503787040709  0.7950034737586974  0.7569698691368103  1.0000
  Os  Os8       1.0  0.7684840559959412  0.29955318570137024  0.7575259804725647  1.0000
