data_image0
_chemical_formula_structural       Os5IrOs2IrOs7
_chemical_formula_sum              "Os14 Ir2"
_cell_length_a       5.472270727759965
_cell_length_b       5.47110326318986
_cell_length_c       7.748034954071045
_cell_angle_alpha    89.91325226776233
_cell_angle_beta     89.90582785052463
_cell_angle_gamma    89.84189728323989

_space_group_name_H-M_alt    "P 1"
_space_group_IT_number       1

loop_
  _space_group_symop_operation_xyz
  'x, y, z'

loop_
  _atom_site_type_symbol
  _atom_site_label
  _atom_site_symmetry_multiplicity
  _atom_site_fract_x
  _atom_site_fract_y
  _atom_site_fract_z
  _atom_site_occupancy
  Os  Os1       1.0  0.27548491954803467  0.5785059332847595  0.0904223844408989  1.0000
  Os  Os2       1.0  0.5249190926551819  0.32992804050445557  0.34097129106521606  1.0000
  Os  Os3       1.0  0.27543210983276367  0.07865086942911148  0.5905978083610535  1.0000
  Os  Os4       1.0  0.5237776637077332  0.3296067714691162  0.8407008647918701  1.0000
  Os  Os5       1.0  0.7753974199295044  0.5788365006446838  0.0908440351486206  1.0000
  Ir  Ir1       1.0  0.7755000591278076  0.07853801548480988  0.5909652709960938  1.0000
  Os  Os6       1.0  0.025656774640083313  0.8280646204948425  0.3401944041252136  1.0000
  Os  Os7       1.0  0.775424599647522  0.5788403749465942  0.5912560820579529  1.0000
  Ir  Ir2       1.0  0.7750962376594543  0.0786585584282875  0.09068943560123444  1.0000
  Os  Os8       1.0  0.5242548584938049  0.8272732496261598  0.34028515219688416  1.0000
  Os  Os9       1.0  0.27504339814186096  0.07885424047708511  0.09087672084569931  1.0000
  Os  Os10      1.0  0.5251237750053406  0.8281848430633546  0.8407393097877502  1.0000
  Os  Os11      1.0  0.2749936580657959  0.5790494680404663  0.5907353162765503  1.0000
  Os  Os12      1.0  0.025638291612267494  0.32942304015159607  0.8407732844352722  1.0000
  Os  Os13      1.0  0.026397842913866043  0.3292803168296814  0.3406482934951782  1.0000
  Os  Os14      1.0  0.02655603550374508  0.827508270740509  0.8408716320991516  1.0000
