data_image0
_chemical_formula_structural       Ir7W3
_chemical_formula_sum              "Ir7 W3"
_cell_length_a       3.901107594471669
_cell_length_b       3.900444725698113
_cell_length_c       9.943594932556152
_cell_angle_alpha    101.30994226163325
_cell_angle_beta     90.00868367508562
_cell_angle_gamma    90.03178337716287

_space_group_name_H-M_alt    "P 1"
_space_group_IT_number       1

loop_
  _space_group_symop_operation_xyz
  'x, y, z'

loop_
  _atom_site_type_symbol
  _atom_site_label
  _atom_site_symmetry_multiplicity
  _atom_site_fract_x
  _atom_site_fract_y
  _atom_site_fract_z
  _atom_site_occupancy
  Ir  Ir1       1.0  0.7364892363548279  0.8941168189048766  0.14577203989028928  1.0000
  Ir  Ir2       1.0  0.23684518039226532  0.1956188380718231  0.7483933568000793  1.0000
  Ir  Ir3       1.0  0.7368483543395996  0.49777796864509577  0.35295051336288447  1.0000
  Ir  Ir4       1.0  0.23676185309886932  0.7964765429496764  0.9499223232269287  1.0000
  Ir  Ir5       1.0  0.7368375062942505  0.696949005126953  0.7507219910621643  1.0000
  Ir  Ir6       1.0  0.23664875328540802  0.9971412420272826  0.3509809374809265  1.0000
  Ir  Ir7       1.0  0.23672692477703094  0.5993939638137817  0.5564928650856018  1.0000
  W   W1        1.0  0.7370975017547607  0.2957320511341095  0.9492895007133484  1.0000
  W   W2        1.0  0.7368786334991455  0.09442745149135588  0.5450756549835205  1.0000
  W   W3        1.0  0.2365298569202423  0.39967033267021174  0.1570216417312622  1.0000
