data_image0
_chemical_formula_structural       Os3Re2Os5
_chemical_formula_sum              "Os8 Re2"
_cell_length_a       4.800520683715961
_cell_length_b       5.188296969320335
_cell_length_c       7.071878910064697
_cell_angle_alpha    108.3821792784286
_cell_angle_beta     89.89300759255313
_cell_angle_gamma    117.50987834951519

_space_group_name_H-M_alt    "P 1"
_space_group_IT_number       1

loop_
  _space_group_symop_operation_xyz
  'x, y, z'

loop_
  _atom_site_type_symbol
  _atom_site_label
  _atom_site_symmetry_multiplicity
  _atom_site_fract_x
  _atom_site_fract_y
  _atom_site_fract_z
  _atom_site_occupancy
  Os  Os1       1.0  0.3669179379940033  0.05976550281047822  0.900069236755371  1.0000
  Os  Os2       1.0  0.500032365322113  0.6564763784408569  0.0002192258834838867  1.0000
  Os  Os3       1.0  0.5666429400444031  0.4598926603794098  0.3001464009284973  1.0000
  Re  Re1       1.0  0.0999484658241272  0.8583367466926575  0.20017410814762113  1.0000
  Re  Re2       1.0  0.7671393752098083  0.8585169315338135  0.6999725699424744  1.0000
  Os  Os4       1.0  0.16580568253993988  0.6562508940696716  0.5000659823417664  1.0000
  Os  Os5       1.0  0.9004073143005371  0.4589551091194153  0.8000186085700988  1.0000
  Os  Os6       1.0  0.7014377117156982  0.06082084774971008  0.40041750669479365  1.0000
  Os  Os7       1.0  0.966414749622345  0.25766485929489136  0.10054149478673934  1.0000
  Os  Os8       1.0  0.3003467321395874  0.25685209035873413  0.6004408001899719  1.0000
